@!IC, SBASE,REV,XFRRAT,NXFRAT,BASFRQ
0,   100.00, 34,     0,     1, 60.00     / PSS(R)E-34.8    FRI, AUG 09 2024  14:25
                               100.0

GENERAL, THRSHZ=0.0001, PQBRAK=0.7, BLOWUP=5.0
GAUSS, ITMX=100, ACCP=1.6, ACCQ=1.6, ACCM=1.0, TOL=0.0001
NEWTON, ITMXN=20, ACCN=1.0, TOLN=0.1, VCTOLQ=0.1, VCTOLV=0.00001, DVLIM=0.99, NDVFCT=0.99
ADJUST, ADJTHR=0.005, ACCTAP=1.0, TAPLIM=0.05, SWVBND=100.0, MXTPSS=99, MXSWIM=10
TYSL, ITMXTY=20, ACCTY=1.0, TOLTY=0.00001
RATING, 1, "RATE1 ", "RATING SET 1                    "
RATING, 2, "RATE2 ", "RATING SET 2                    "
RATING, 3, "RATE3 ", "RATING SET 3                    "
RATING, 4, "RATE4 ", "RATING SET 4                    "
RATING, 5, "RATE5 ", "RATING SET 5                    "
RATING, 6, "RATE6 ", "RATING SET 6                    "
RATING, 7, "RATE7 ", "RATING SET 7                    "
RATING, 8, "RATE8 ", "RATING SET 8                    "
RATING, 9, "RATE9 ", "RATING SET 9                    "
RATING,10, "RATE10", "RATING SET 10                   "
RATING,11, "RATE11", "RATING SET 11                   "
RATING,12, "RATE12", "RATING SET 12                   "
0 / END OF SYSTEM-WIDE DATA, BEGIN BUS DATA
@!   I,'NAME        ', BASKV, IDE,AREA,ZONE,OWNER, VM,        VA,    NVHI,   NVLO,   EVHI,   EVLO
     1,'BURNS2      ', 500.0000,1,   1,   1,   1,1.09389, -22.1398,1.10000,0.90000,1.10000,0.90000
     2,'CORONADO    ', 500.0000,1,   1,   1,   1,0.99209, -27.4770,1.10000,0.90000,1.10000,0.90000
     3,'CHOLLA      ', 345.0000,1,   1,   1,   1,0.97851, -18.3887,1.10000,0.90000,1.10000,0.90000
     4,'CORONADO    ',  20.0000,2,   1,   1,   1,1.04000, -20.7398,1.10000,0.90000,1.10000,0.90000
     5,'CRAIG       ', 345.0000,1,   1,   1,   1,0.95371,  18.2352,1.10000,0.90000,1.10000,0.90000
     6,'CRAIG       ',  22.0000,2,   1,   1,   1,0.95000,  25.6777,1.10000,0.90000,1.10000,0.90000
     7,'FOURCORN    ', 500.0000,1,   1,   1,   1,0.99021,  -9.4298,1.10000,0.90000,1.10000,0.90000
     8,'FOURCORN    ', 345.0000,1,   1,   1,   1,0.99460,  -5.8580,1.10000,0.90000,1.10000,0.90000
     9,'FCNGN4CC    ',  22.0000,2,   1,   1,   1,1.00000,   1.1604,1.10000,0.90000,1.10000,0.90000
    10,'FOURCORN    ', 230.0000,1,   1,   1,   1,0.99270,  -6.4174,1.10000,0.90000,1.10000,0.90000
    11,'HAYDEN      ',  20.0000,2,   1,   1,   1,1.00000,  36.0897,1.10000,0.90000,1.10000,0.90000
    12,'NAVAJO      ', 500.0000,1,   2,   1,   1,0.99243, -46.0381,1.10000,0.90000,1.10000,0.90000
    13,'NAVAJO 2    ',  26.0000,2,   2,   1,   1,1.00000, -39.9136,1.10000,0.90000,1.10000,0.90000
    14,'MOENKOPI    ', 500.0000,1,   2,   1,   1,1.01442, -43.6763,1.10000,0.90000,1.10000,0.90000
    15,'PALOVRD2    ',  24.0000,2,   2,   1,   1,0.96000, -54.2541,1.10000,0.90000,1.10000,0.90000
    16,'PALOVRDE    ', 500.0000,1,   2,   1,   1,0.96496, -62.0529,1.10000,0.90000,1.10000,0.90000
    17,'SAN JUAN    ', 345.0000,1,   1,   1,   1,1.00707,  -4.8523,1.10000,0.90000,1.10000,0.90000
    18,'SJUAN G4    ',  22.0000,2,   1,   1,   1,1.00000,  -1.9081,1.10000,0.90000,1.10000,0.90000
    19,'WESTWING    ', 500.0000,1,   2,   1,   1,1.00129, -61.4329,1.10000,0.90000,1.10000,0.90000
    20,'NAVAJO1     ', 500.0000,1,   2,   1,   1,1.00222, -45.5774,1.10000,0.90000,1.10000,0.90000
    21,'NAVAJO2     ', 500.0000,1,   2,   1,   1,1.01457, -44.1780,1.10000,0.90000,1.10000,0.90000
    22,'NAVAJO3     ', 500.0000,1,   2,   1,   1,1.01813, -48.4836,1.10000,0.90000,1.10000,0.90000
    23,'NAVAJO4     ', 500.0000,1,   2,   1,   1,1.02811, -59.3584,1.10000,0.90000,1.10000,0.90000
    24,'MOENKOP1    ', 500.0000,1,   2,   1,   1,1.02000, -46.2140,1.10000,0.90000,1.10000,0.90000
    25,'MOENKOP2    ', 500.0000,1,   2,   1,   1,1.01417, -58.9880,1.10000,0.90000,1.10000,0.90000
    26,'MOENKOP3    ', 500.0000,1,   2,   1,   1,1.02747, -47.6839,1.10000,0.90000,1.10000,0.90000
    27,'MOENKOP4    ', 500.0000,1,   2,   1,   1,0.99359, -58.5815,1.10000,0.90000,1.10000,0.90000
    28,'FOURCOR1    ', 500.0000,1,   1,   1,   1,0.98449, -12.0933,1.10000,0.90000,1.10000,0.90000
    29,'FOURCOR2    ', 500.0000,1,   1,   1,   1,1.00705, -39.8748,1.10000,0.90000,1.10000,0.90000
    30,'CANAD G1    ',  20.0000,2,   1,   1,   1,1.00000,  26.6851,1.10000,0.90000,1.10000,0.90000
    31,'CANADA      ', 500.0000,1,   1,   1,   1,0.98434,  22.8853,1.10000,0.90000,1.10000,0.90000
    32,'CANALB      ', 500.0000,1,   1,   1,   1,0.97691,  56.3851,1.10000,0.90000,1.10000,0.90000
    33,'CA230TO     ', 230.0000,1,   1,   1,   1,0.97602,  61.0004,1.10000,0.90000,1.10000,0.90000
    34,'CA230       ', 230.0000,1,   1,   1,   1,1.00082,  70.0581,1.10000,0.90000,1.10000,0.90000
    35,'CMAIN GM    ',  20.0000,2,   1,   1,   1,1.02000,  74.9795,1.10000,0.90000,1.10000,0.90000
    36,'BRIDGER2    ',  22.0000,2,   1,   1,   1,1.00900,  16.4076,1.10000,0.90000,1.10000,0.90000
    37,'ADELANTO    ', 500.0000,1,   2,   1,   1,0.93799, -85.6183,1.10000,0.90000,1.10000,0.90000
    38,'ADELAN&1    ', 500.0000,1,   2,   1,   1,0.93765, -90.5983,1.10000,0.90000,1.10000,0.90000
    39,'CASTAIC     ', 230.0000,1,   2,   1,   1,0.94685, -85.6807,1.10000,0.90000,1.10000,0.90000
    40,'CASTAI4G    ',  18.0000,2,   2,   1,   1,1.02000, -69.5248,1.10000,0.90000,1.10000,0.90000
    41,'GLENDAL     ', 230.0000,1,   2,   1,   1,0.92061, -95.2605,1.10000,0.90000,1.10000,0.90000
    42,'HAYNES      ', 230.0000,1,   2,   1,   1,0.94146, -92.5976,1.10000,0.90000,1.10000,0.90000
    43,'HAYNES3G    ',  18.0000,2,   2,   1,   1,1.00000, -84.4718,1.10000,0.90000,1.10000,0.90000
    44,'INTERMT     ', 345.0000,1,   1,   1,   1,0.95597,  -1.2825,1.10000,0.90000,1.10000,0.90000
    45,'INTERM1G    ',  26.0000,2,   1,   1,   1,1.05000,   3.5530,1.10000,0.90000,1.10000,0.90000
    46,'OLIVE       ', 230.0000,1,   2,   1,   1,0.93387, -91.8401,1.10000,0.90000,1.10000,0.90000
    47,'OWENS G     ',  11.5000,2,   2,   1,   1,1.02000, -62.8813,1.10000,0.90000,1.10000,0.90000
    48,'RINALDI     ', 230.0000,1,   2,   1,   1,0.93378, -92.4436,1.10000,0.90000,1.10000,0.90000
    49,'RINALDI     ', 500.0000,1,   2,   1,   1,0.94074, -89.2854,1.10000,0.90000,1.10000,0.90000
    50,'RIVER       ', 230.0000,1,   2,   1,   1,0.92081, -95.7696,1.10000,0.90000,1.10000,0.90000
    51,'STA B       ', 138.0000,1,   2,   1,   1,0.91653, -96.0890,1.10000,0.90000,1.10000,0.90000
    52,'STA B1      ', 287.0000,1,   2,   1,   1,0.92078, -94.9279,1.10000,0.90000,1.10000,0.90000
    53,'STA B2      ', 287.0000,1,   2,   1,   1,0.92048, -94.9237,1.10000,0.90000,1.10000,0.90000
    54,'STA BLD     ', 230.0000,1,   2,   1,   1,0.91815, -96.0625,1.10000,0.90000,1.10000,0.90000
    55,'STA E       ', 230.0000,1,   2,   1,   1,0.92224, -94.5681,1.10000,0.90000,1.10000,0.90000
    56,'STA E       ', 500.0000,1,   2,   1,   1,0.92585, -91.9123,1.10000,0.90000,1.10000,0.90000
    57,'STA F       ', 230.0000,1,   2,   1,   1,0.92143, -95.5738,1.10000,0.90000,1.10000,0.90000
    58,'STA G       ', 230.0000,1,   2,   1,   1,0.92146, -95.2916,1.10000,0.90000,1.10000,0.90000
    59,'STA J       ', 230.0000,1,   2,   1,   1,0.92996, -93.4455,1.10000,0.90000,1.10000,0.90000
    60,'SYLMARLA    ', 230.0000,1,   2,   1,   1,0.93796, -92.5778,1.10000,0.90000,1.10000,0.90000
    61,'SYLMAR S    ', 230.0000,1,   2,   1,   1,0.93822, -92.8697,1.10000,0.90000,1.10000,0.90000
    62,'VALLEY      ', 230.0000,1,   2,   1,   1,0.92792, -93.6897,1.10000,0.90000,1.10000,0.90000
    63,'VICTORVL    ', 287.0000,1,   2,   1,   1,0.94562, -88.9548,1.10000,0.90000,1.10000,0.90000
    64,'VICTORVL    ', 500.0000,1,   2,   1,   1,0.94011, -84.9805,1.10000,0.90000,1.10000,0.90000
    65,'MONTA G1    ',  20.0000,2,   1,   1,   1,1.00000,  62.5695,1.10000,0.90000,1.10000,0.90000
    66,'MONTANA     ', 500.0000,1,   1,   1,   1,0.94474,  54.4502,1.10000,0.90000,1.10000,0.90000
    67,'BIG EDDY    ', 115.0000,1,   1,   1,   1,1.02549, -18.5192,1.10000,0.90000,1.10000,0.90000
    68,'BIG EDDY    ', 230.0000,1,   1,   1,   1,1.03567, -15.9377,1.10000,0.90000,1.10000,0.90000
    69,'BIG EDDY    ', 500.0000,1,   1,   1,   1,1.02921, -14.6974,1.10000,0.90000,1.10000,0.90000
    70,'DALLES21    ',  13.8000,2,   1,   1,   1,1.05500,  -8.0510,1.10000,0.90000,1.10000,0.90000
    71,'CELILO      ', 230.0000,1,   1,   1,   1,1.02993, -16.4948,1.10000,0.90000,1.10000,0.90000
    72,'CELILOCA    ', 500.0000,1,   1,   1,   1,1.02984, -14.8129,1.10000,0.90000,1.10000,0.90000
    73,'COLSTRP     ', 500.0000,1,   1,   1,   1,1.09349, -14.1745,1.10000,0.90000,1.10000,0.90000
    74,'COULEE      ', 500.0000,1,   1,   1,   1,1.00920,  -0.1834,1.10000,0.90000,1.10000,0.90000
    75,'GARRISON    ', 500.0000,1,   1,   1,   1,1.04138, -13.6292,1.10000,0.90000,1.10000,0.90000
    76,'JOHN DAY    ', 500.0000,1,   1,   1,   1,1.01831, -12.2563,1.10000,0.90000,1.10000,0.90000
    77,'JOHN DAY    ',  13.8000,3,   1,   1,   1,1.00000,   0.0000,1.10000,0.90000,1.10000,0.90000
    78,'HANFORD     ', 500.0000,1,   1,   1,   1,0.98983,  -0.1222,1.10000,0.90000,1.10000,0.90000
    79,'NORTH G3    ',  20.0000,2,   1,   1,   1,1.02000,  27.1546,1.10000,0.90000,1.10000,0.90000
    80,'NORTH       ', 500.0000,1,   1,   1,   1,0.99620,  13.1387,1.10000,0.90000,1.10000,0.90000
    81,'BURNS       ', 500.0000,1,   1,   1,   1,1.18981, -15.0436,1.10000,0.90000,1.10000,0.90000
    82,'GRIZZLY     ', 500.0000,1,   1,   1,   1,1.05277, -20.9868,1.10000,0.90000,1.10000,0.90000
    83,'MALIN       ', 500.0000,1,   1,   1,   1,1.05539, -33.7533,1.10000,0.90000,1.10000,0.90000
    84,'MIDPOINT    ', 500.0000,1,   1,   1,   1,1.03164,   9.7765,1.10000,0.90000,1.10000,0.90000
    85,'MIDPOINT    ', 345.0000,1,   1,   1,   1,1.00877,  12.4179,1.10000,0.90000,1.10000,0.90000
    86,'SUMMER L    ', 500.0000,1,   1,   1,   1,1.09021, -25.9229,1.10000,0.90000,1.10000,0.90000
    87,'GRIZZLY1    ', 500.0000,1,   1,   1,   1,1.06594, -22.2218,1.10000,0.90000,1.10000,0.90000
    88,'GRIZZLY2    ', 500.0000,1,   1,   1,   1,1.08176, -24.3076,1.10000,0.90000,1.10000,0.90000
    89,'MALIN1      ', 500.0000,1,   1,   1,   1,1.07615, -29.3289,1.10000,0.90000,1.10000,0.90000
    90,'MALIN2      ', 500.0000,1,   1,   1,   1,1.08781, -26.6604,1.10000,0.90000,1.10000,0.90000
    91,'GRIZZLY3    ', 500.0000,1,   1,   1,   1,1.05625, -24.5058,1.10000,0.90000,1.10000,0.90000
    92,'GRIZZLY4    ', 500.0000,1,   1,   1,   1,1.06606, -26.7310,1.10000,0.90000,1.10000,0.90000
    93,'GRIZZLY5    ', 500.0000,1,   1,   1,   1,1.07140, -29.1420,1.10000,0.90000,1.10000,0.90000
    94,'GRIZZLY6    ', 500.0000,1,   1,   1,   1,1.06711, -31.2452,1.10000,0.90000,1.10000,0.90000
    95,'GRIZZLY7    ', 500.0000,1,   1,   1,   1,1.05097, -23.5926,1.10000,0.90000,1.10000,0.90000
    96,'GRIZZLY8    ', 500.0000,1,   1,   1,   1,1.05410, -26.1305,1.10000,0.90000,1.10000,0.90000
    97,'GRIZZLY9    ', 500.0000,1,   1,   1,   1,1.05202, -28.7144,1.10000,0.90000,1.10000,0.90000
    98,'GRIZZLYA    ', 500.0000,1,   1,   1,   1,1.05689, -31.2153,1.10000,0.90000,1.10000,0.90000
    99,'BURNS1      ', 500.0000,1,   1,   1,   1,1.10967,   0.4309,1.10000,0.90000,1.10000,0.90000
   100,'CORTINA     ', 200.0000,1,   3,   1,   1,0.98353, -68.6355,1.10000,0.90000,1.10000,0.90000
   101,'COTWDPGE    ', 200.0000,1,   3,   1,   1,1.01983, -57.0250,1.10000,0.90000,1.10000,0.90000
   102,'DIABLO      ', 500.0000,1,   2,   1,   1,1.03481, -86.4197,1.10000,0.90000,1.10000,0.90000
   103,'DIABLO1     ',  25.0000,2,   2,   1,   1,0.98000, -82.7322,1.10000,0.90000,1.10000,0.90000
   104,'GATES       ', 500.0000,1,   2,   1,   1,1.07054, -87.5373,1.10000,0.90000,1.10000,0.90000
   105,'GLENN       ', 200.0000,1,   3,   1,   1,1.00381, -62.9834,1.10000,0.90000,1.10000,0.90000
   106,'LOGAN CR    ', 200.0000,1,   3,   1,   1,0.99985, -63.9286,1.10000,0.90000,1.10000,0.90000
   107,'LOSBANOS    ', 500.0000,1,   2,   1,   1,1.06034, -89.8523,1.10000,0.90000,1.10000,0.90000
   108,'MIDWAY      ', 500.0000,1,   2,   1,   1,1.05460, -89.2687,1.10000,0.90000,1.10000,0.90000
   109,'MIDWAY      ', 200.0000,1,   2,   1,   1,1.06001, -92.0933,1.10000,0.90000,1.10000,0.90000
   110,'MOSSLAND    ', 500.0000,1,   2,   1,   1,1.05887, -90.1143,1.10000,0.90000,1.10000,0.90000
   111,'OLINDA      ', 500.0000,1,   3,   1,   1,1.03119, -53.0951,1.10000,0.90000,1.10000,0.90000
   112,'ROUND MT    ',  20.0000,2,   3,   1,   1,1.02000, -39.4976,1.10000,0.90000,1.10000,0.90000
   113,'ROUND MT    ', 200.0000,1,   3,   1,   1,1.03482, -48.9129,1.10000,0.90000,1.10000,0.90000
   114,'ROUND MT    ', 500.0000,1,   3,   1,   1,1.03475, -48.2874,1.10000,0.90000,1.10000,0.90000
   115,'TABLE MT    ', 500.0000,1,   3,   1,   1,0.99806, -59.3854,1.10000,0.90000,1.10000,0.90000
   116,'TEVATR      ',  20.0000,2,   3,   1,   1,1.05000, -69.1883,1.10000,0.90000,1.10000,0.90000
   117,'TEVATR      ', 200.0000,1,   3,   1,   1,0.98846, -73.1957,1.10000,0.90000,1.10000,0.90000
   118,'TEVATR2     ',  20.0000,2,   3,   1,   1,1.00000, -59.7082,1.10000,0.90000,1.10000,0.90000
   119,'TEVATR      ', 500.0000,1,   3,   1,   1,0.95401, -72.1792,1.10000,0.90000,1.10000,0.90000
   120,'OLINDA1     ', 500.0000,1,   3,   1,   1,1.03047, -53.4448,1.10000,0.90000,1.10000,0.90000
   121,'OLINDA2     ', 500.0000,1,   3,   1,   1,1.01139, -60.3821,1.10000,0.90000,1.10000,0.90000
   122,'OLINDA3     ', 500.0000,1,   3,   1,   1,0.99331, -63.9912,1.10000,0.90000,1.10000,0.90000
   123,'OLINDA4     ', 500.0000,1,   3,   1,   1,0.95429, -72.1403,1.10000,0.90000,1.10000,0.90000
   124,'ROUND1      ', 500.0000,1,   3,   1,   1,1.03371, -48.7169,1.10000,0.90000,1.10000,0.90000
   125,'ROUND2      ', 500.0000,1,   3,   1,   1,0.99888, -59.0813,1.10000,0.90000,1.10000,0.90000
   126,'ROUND3      ', 500.0000,1,   3,   1,   1,1.03371, -48.7169,1.10000,0.90000,1.10000,0.90000
   127,'ROUND4      ', 500.0000,1,   3,   1,   1,0.99888, -59.0813,1.10000,0.90000,1.10000,0.90000
   128,'TABLE1      ', 500.0000,1,   3,   1,   1,0.99795, -59.4252,1.10000,0.90000,1.10000,0.90000
   129,'TABLE2      ', 500.0000,1,   3,   1,   1,0.95424, -72.1366,1.10000,0.90000,1.10000,0.90000
   130,'TABLE3      ', 500.0000,1,   3,   1,   1,0.99666, -59.7863,1.10000,0.90000,1.10000,0.90000
   131,'TABLE4      ', 500.0000,1,   3,   1,   1,0.95448, -71.9988,1.10000,0.90000,1.10000,0.90000
   132,'TEVATR1     ', 500.0000,1,   2,   1,   1,0.97057, -74.2848,1.10000,0.90000,1.10000,0.90000
   133,'TEVATR2     ', 500.0000,1,   2,   1,   1,1.05372, -88.9614,1.10000,0.90000,1.10000,0.90000
   134,'TEVATR3     ', 500.0000,1,   2,   1,   1,0.98215, -76.0188,1.10000,0.90000,1.10000,0.90000
   135,'GATES1      ', 500.0000,1,   2,   1,   1,1.06449, -88.5935,1.10000,0.90000,1.10000,0.90000
   136,'DEVERS      ', 500.0000,1,   2,   1,   1,0.93393, -80.8692,1.10000,0.90000,1.10000,0.90000
   137,'EAGLROCK    ', 230.0000,1,   2,   1,   1,0.95104, -96.0482,1.10000,0.90000,1.10000,0.90000
   138,'ELDORADO    ',  20.0000,2,   2,   1,   1,1.02000, -32.8067,1.10000,0.90000,1.10000,0.90000
   139,'ELDORADO    ', 500.0000,1,   2,   1,   1,0.94924, -62.5961,1.10000,0.90000,1.10000,0.90000
   140,'LITEHIPE    ',  20.0000,2,   2,   1,   1,1.02000, -92.0282,1.10000,0.90000,1.10000,0.90000
   141,'LITEHIPE    ', 230.0000,1,   2,   1,   1,0.98589, -98.4760,1.10000,0.90000,1.10000,0.90000
   142,'LUGO        ', 500.0000,1,   2,   1,   1,0.96624, -87.0838,1.10000,0.90000,1.10000,0.90000
   143,'MESA CAL    ', 230.0000,1,   2,   1,   1,0.97209, -97.6677,1.10000,0.90000,1.10000,0.90000
   144,'MIRALOMA    ',  20.0000,2,   2,   1,   1,1.05000, -86.5101,1.10000,0.90000,1.10000,0.90000
   145,'MIRALOMA    ', 500.0000,1,   2,   1,   1,0.97664, -91.0945,1.10000,0.90000,1.10000,0.90000
   146,'MIRALOMA    ', 230.0000,1,   2,   1,   1,0.97632, -91.6492,1.10000,0.90000,1.10000,0.90000
   147,'MOHAVE      ', 500.0000,1,   2,   1,   1,1.00786, -61.1706,1.10000,0.90000,1.10000,0.90000
   148,'MOHAV1CC    ',  22.0000,2,   2,   1,   1,1.05000, -52.7602,1.10000,0.90000,1.10000,0.90000
   149,'PARDEE      ',  20.0000,2,   2,   1,   1,1.01000, -70.0149,1.10000,0.90000,1.10000,0.90000
   150,'PARDEE      ', 230.0000,1,   2,   1,   1,0.94594, -92.0839,1.10000,0.90000,1.10000,0.90000
   151,'SERRANO     ', 500.0000,1,   2,   1,   1,0.96411, -91.1905,1.10000,0.90000,1.10000,0.90000
   152,'VALLEY      ', 500.0000,1,   2,   1,   1,0.94468, -87.2416,1.10000,0.90000,1.10000,0.90000
   153,'VINCENT     ', 500.0000,1,   2,   1,   1,0.99773, -90.5108,1.10000,0.90000,1.10000,0.90000
   154,'VINCENT     ', 230.0000,1,   2,   1,   1,0.99168, -93.1298,1.10000,0.90000,1.10000,0.90000
   155,'CAMP WIL    ', 345.0000,1,   1,   1,   1,1.03216,   1.5879,1.10000,0.90000,1.10000,0.90000
   156,'BENLOMND    ', 345.0000,1,   1,   1,   1,1.02670,   2.5532,1.10000,0.90000,1.10000,0.90000
   157,'BENLOMND    ', 230.0000,1,   1,   1,   1,1.01818,   1.9693,1.10000,0.90000,1.10000,0.90000
   158,'EMERY       ', 345.0000,1,   1,   1,   1,1.05933,   7.9688,1.10000,0.90000,1.10000,0.90000
   159,'EMERY       ',  20.0000,2,   1,   1,   1,1.05000,  12.6660,1.10000,0.90000,1.10000,0.90000
   160,'MONA        ', 345.0000,1,   1,   1,   1,1.01464,   1.2187,1.10000,0.90000,1.10000,0.90000
   161,'NAUGHTON    ', 230.0000,1,   1,   1,   1,0.99007,   7.0915,1.10000,0.90000,1.10000,0.90000
   162,'NAUGHT      ',  20.0000,2,   1,   1,   1,1.00000,   9.8884,1.10000,0.90000,1.10000,0.90000
   163,'PINTO PS    ', 345.0000,1,   1,   1,   1,1.03988,  -2.3164,1.10000,0.90000,1.10000,0.90000
   164,'PINTO       ', 345.0000,1,   1,   1,   1,1.05100,  -0.7116,1.10000,0.90000,1.10000,0.90000
   165,'SPAN FRK    ', 345.0000,1,   1,   1,   1,1.03493,   2.6810,1.10000,0.90000,1.10000,0.90000
   166,'SIGURD      ', 345.0000,1,   1,   1,   1,1.04310,   2.6602,1.10000,0.90000,1.10000,0.90000
   167,'TERMINAL    ', 345.0000,1,   1,   1,   1,1.02601,   1.1857,1.10000,0.90000,1.10000,0.90000
   168,'MALIN3      ', 500.0000,1,   3,   1,   1,1.04752, -37.0462,1.10000,0.90000,1.10000,0.90000
   169,'MALIN4      ', 500.0000,1,   3,   1,   1,1.03552, -47.9516,1.10000,0.90000,1.10000,0.90000
   170,'MALIN5      ', 500.0000,1,   3,   1,   1,1.04708, -37.3894,1.10000,0.90000,1.10000,0.90000
   171,'MALIN6      ', 500.0000,1,   3,   1,   1,1.03551, -47.9790,1.10000,0.90000,1.10000,0.90000
   172,'MALIN7      ', 500.0000,1,   3,   1,   1,1.05450, -37.4500,1.10000,0.90000,1.10000,0.90000
   173,'MALIN8      ', 500.0000,1,   3,   1,   1,1.04512, -49.3997,1.10000,0.90000,1.10000,0.90000
   174,'MIDWAY1     ', 500.0000,1,   2,   1,   1,1.05335, -89.5545,1.10000,0.90000,1.10000,0.90000
   175,'MIDWAY2     ', 500.0000,1,   2,   1,   1,1.02011, -90.3213,1.10000,0.90000,1.10000,0.90000
   176,'MIDWAY3     ', 500.0000,1,   2,   1,   1,1.05336, -89.5566,1.10000,0.90000,1.10000,0.90000
   177,'MIDWAY4     ', 500.0000,1,   2,   1,   1,1.02011, -90.3221,1.10000,0.90000,1.10000,0.90000
   178,'MIDWAY5     ', 500.0000,1,   2,   1,   1,1.05171, -89.5606,1.10000,0.90000,1.10000,0.90000
   179,'MIDWAY6     ', 500.0000,1,   2,   1,   1,1.01796, -90.3264,1.10000,0.90000,1.10000,0.90000
0 / END OF BUS DATA, BEGIN LOAD DATA
@!   I,'ID',STAT,AREA,ZONE,      PL,        QL,        IP,        IQ,        YP,        YQ, OWNER,SCALE,INTRPT,  DGENP,     DGENQ, DGENF
     1,'1 ',   1,   1,   1,   300.000,   426.000,     0.000,     0.000,     0.000,     0.000,   1,    1,  0,     0.000,     0.000,   0
     2,'BL',   1,   1,   1,  1750.000,    56.000,     0.000,     0.000,     0.000,     0.000,   1,    1,  0,     0.000,     0.000,   0
     4,'BL',   1,   1,   1,   100.000,    10.000,     0.000,     0.000,     0.000,     0.000,   1,    1,  0,     0.000,     0.000,   0
     5,'BL',   1,   1,   1,  2350.000,   127.000,     0.000,     0.000,     0.000,     0.000,   1,    1,  0,     0.000,     0.000,   0
     6,'BL',   1,   1,   1,   100.000,   210.000,     0.000,     0.000,     0.000,     0.000,   1,    1,  0,     0.000,     0.000,   0
     8,'BL',   1,   1,   1,   239.000,   170.000,     0.000,     0.000,     0.000,     0.000,   1,    1,  0,     0.000,     0.000,   0
     9,'BL',   1,   1,   1,   100.000,   110.000,     0.000,     0.000,     0.000,     0.000,   1,    1,  0,     0.000,     0.000,   0
    10,'BL',   1,   1,   1,   139.700,    23.800,     0.000,     0.000,     0.000,     0.000,   1,    1,  0,     0.000,     0.000,   0
    11,'BL',   1,   1,   1,   100.000,    10.000,     0.000,     0.000,     0.000,     0.000,   1,    1,  0,     0.000,     0.000,   0
    12,'BL',   1,   2,   1,    90.000,   260.000,     0.000,     0.000,     0.000,     0.000,   1,    1,  0,     0.000,     0.000,   0
    13,'BL',   1,   2,   1,   100.000,    80.000,     0.000,     0.000,     0.000,     0.000,   1,    1,  0,     0.000,     0.000,   0
    15,'BL',   1,   2,   1,   100.000,   250.000,     0.000,     0.000,     0.000,     0.000,   1,    1,  0,     0.000,     0.000,   0
    16,'BL',   1,   2,   1,   793.400,   350.000,     0.000,     0.000,     0.000,     0.000,   1,    1,  0,     0.000,     0.000,   0
    17,'BL',   1,   1,   1,   840.000,     5.000,     0.000,     0.000,     0.000,     0.000,   1,    1,  0,     0.000,     0.000,   0
    18,'BL',   1,   1,   1,   100.000,   210.000,     0.000,     0.000,     0.000,     0.000,   1,    1,  0,     0.000,     0.000,   0
    19,'BL',   1,   2,   1,   617.000,    69.000,     0.000,     0.000,     0.000,     0.000,   1,    1,  0,     0.000,     0.000,   0
    30,'BL',   1,   1,   1,   100.000,    10.000,     0.000,     0.000,     0.000,     0.000,   1,    1,  0,     0.000,     0.000,   0
    31,'BL',   1,   1,   1,  4400.000,  1000.000,     0.000,     0.000,     0.000,     0.000,   1,    1,  0,     0.000,     0.000,   0
    34,'BL',   1,   1,   1,  3600.000,   700.000,     0.000,     0.000,     0.000,     0.000,   1,    1,  0,     0.000,     0.000,   0
    35,'BL',   1,   1,   1,   100.000,    10.000,     0.000,     0.000,     0.000,     0.000,   1,    1,  0,     0.000,     0.000,   0
    36,'BL',   1,   1,   1,   100.000,    10.000,     0.000,     0.000,     0.000,     0.000,   1,    1,  0,     0.000,     0.000,   0
    37,'BL',   1,   2,   1,   262.000,   971.000,     0.000,     0.000,     0.000,     0.000,   1,    1,  0,     0.000,     0.000,   0
    40,'BL',   1,   2,   1,   100.000,    60.000,     0.000,     0.000,     0.000,     0.000,   1,    1,  0,     0.000,     0.000,   0
    41,'BL',   1,   2,   1,   135.000,    27.000,     0.000,     0.000,     0.000,     0.000,   1,    1,  0,     0.000,     0.000,   0
    43,'BL',   1,   2,   1,   100.000,    30.000,     0.000,     0.000,     0.000,     0.000,   1,    1,  0,     0.000,     0.000,   0
    44,'BL',   1,   1,   1,  2053.000,   907.100,     0.000,     0.000,     0.000,     0.000,   1,    1,  0,     0.000,     0.000,   0
    45,'BL',   1,   1,   1,   100.000,    10.000,     0.000,     0.000,     0.000,     0.000,   1,    1,  0,     0.000,     0.000,   0
    46,'BL',   1,   2,   1,    72.800,    17.000,     0.000,     0.000,     0.000,     0.000,   1,    1,  0,     0.000,     0.000,   0
    47,'BL',   1,   2,   1,   100.000,    20.000,     0.000,     0.000,     0.000,     0.000,   1,    1,  0,     0.000,     0.000,   0
    48,'BL',   1,   2,   1,   121.000,   105.000,     0.000,     0.000,     0.000,     0.000,   1,    1,  0,     0.000,     0.000,   0
    50,'BL',   1,   2,   1,   320.000,    65.000,     0.000,     0.000,     0.000,     0.000,   1,    1,  0,     0.000,     0.000,   0
    51,'BL',   1,   2,   1,   237.200,    63.200,     0.000,     0.000,     0.000,     0.000,   1,    1,  0,     0.000,     0.000,   0
    54,'BL',   1,   2,   1,   138.000,    28.000,     0.000,     0.000,     0.000,     0.000,   1,    1,  0,     0.000,     0.000,   0
    55,'BL',   1,   2,   1,   807.800,   132.100,     0.000,     0.000,     0.000,     0.000,   1,    1,  0,     0.000,     0.000,   0
    57,'BL',   1,   2,   1,   117.000,    24.000,     0.000,     0.000,     0.000,     0.000,   1,    1,  0,     0.000,     0.000,   0
    58,'BL',   1,   2,   1,   121.000,    25.000,     0.000,     0.000,     0.000,     0.000,   1,    1,  0,     0.000,     0.000,   0
    59,'BL',   1,   2,   1,   887.700,    50.000,     0.000,     0.000,     0.000,     0.000,   1,    1,  0,     0.000,     0.000,   0
    60,'BL',   1,   2,   1,    71.000,  1654.000,     0.000,     0.000,     0.000,     0.000,   1,    1,  0,     0.000,     0.000,   0
    61,'BL',   1,   2,   1,   401.000,    80.600,     0.000,     0.000,     0.000,     0.000,   1,    1,  0,     0.000,     0.000,   0
    62,'BL',   1,   2,   1,   205.200,    17.600,     0.000,     0.000,     0.000,     0.000,   1,    1,  0,     0.000,     0.000,   0
    63,'BL',   1,   2,   1,    29.000,   140.200,     0.000,     0.000,     0.000,     0.000,   1,    1,  0,     0.000,     0.000,   0
    65,'BL',   1,   1,   1,   100.000,    10.000,     0.000,     0.000,     0.000,     0.000,   1,    1,  0,     0.000,     0.000,   0
    66,'BL',   1,   1,   1,  1700.000,   300.000,     0.000,     0.000,     0.000,     0.000,   1,    1,  0,     0.000,     0.000,   0
    67,'BL',   1,   1,   1,   160.000,    31.250,     0.000,     0.000,     0.000,     0.000,   1,    1,  0,     0.000,     0.000,   0
    68,'BL',   1,   1,   1,    67.500,   160.000,     0.000,     0.000,     0.000,     0.000,   1,    1,  0,     0.000,     0.000,   0
    69,'BL',   1,   1,   1,    44.200,    22.000,     0.000,     0.000,     0.000,     0.000,   1,    1,  0,     0.000,     0.000,   0
    70,'BL',   1,   1,   1,   100.000,    10.000,     0.000,     0.000,     0.000,     0.000,   1,    1,  0,     0.000,     0.000,   0
    71,'BL',   1,   1,   1,  3137.000,  1681.000,     0.000,     0.000,     0.000,     0.000,   1,    1,  0,     0.000,     0.000,   0
    73,'BL',   1,   1,   1,    25.000,    50.000,     0.000,     0.000,     0.000,     0.000,   1,    1,  0,     0.000,     0.000,   0
    75,'BL',   1,   1,   1,  1084.000,   394.000,     0.000,     0.000,     0.000,     0.000,   1,    1,  0,     0.000,     0.000,   0
    76,'BL',   1,   1,   1,  3200.000,  1100.000,     0.000,     0.000,     0.000,     0.000,   1,    1,  0,     0.000,     0.000,   0
    77,'BL',   1,   1,   1,   100.000,    10.000,     0.000,     0.000,     0.000,     0.000,   1,    1,  0,     0.000,     0.000,   0
    78,'BL',   1,   1,   1,  3500.000,   500.000,     0.000,     0.000,     0.000,     0.000,   1,    1,  0,     0.000,     0.000,   0
    79,'BL',   1,   1,   1,   100.000,    10.000,     0.000,     0.000,     0.000,     0.000,   1,    1,  0,     0.000,     0.000,   0
    80,'BL',   1,   1,   1,  5000.000,   400.000,     0.000,     0.000,     0.000,     0.000,   1,    1,  0,     0.000,     0.000,   0
    82,'BL',   1,   1,   1,    66.600,   100.000,     0.000,     0.000,     0.000,     0.000,   1,    1,  0,     0.000,     0.000,   0
    83,'BL',   1,   1,   1,    39.000,    50.000,     0.000,     0.000,     0.000,     0.000,   1,    1,  0,     0.000,     0.000,   0
    85,'BL',   1,   1,   1,   610.000,   400.000,     0.000,     0.000,     0.000,     0.000,   1,    1,  0,     0.000,     0.000,   0
    91,'1 ',   1,   1,   1,   200.000,   100.000,     0.000,     0.000,     0.000,     0.000,   1,    1,  0,     0.000,     0.000,   0
   100,'BL',   1,   3,   1,    43.300,    20.000,     0.000,     0.000,     0.000,     0.000,   1,    1,  0,     0.000,     0.000,   0
   101,'BL',   1,   3,   1,   210.400,    25.000,     0.000,     0.000,     0.000,     0.000,   1,    1,  0,     0.000,     0.000,   0
   102,'BL',   1,   2,   1,    50.000,    25.000,     0.000,     0.000,     0.000,     0.000,   1,    1,  0,     0.000,     0.000,   0
   103,'BL',   1,   2,   1,   100.000,   650.000,     0.000,     0.000,     0.000,     0.000,   1,    1,  0,     0.000,     0.000,   0
   104,'BL',   1,   2,   1,   305.000,    10.000,     0.000,     0.000,     0.000,     0.000,   1,    1,  0,     0.000,     0.000,   0
   105,'BL',   1,   3,   1,    27.500,    10.000,     0.000,     0.000,     0.000,     0.000,   1,    1,  0,     0.000,     0.000,   0
   106,'BL',   1,   3,   1,     8.010,    10.000,     0.000,     0.000,     0.000,     0.000,   1,    1,  0,     0.000,     0.000,   0
   107,'BL',   1,   2,   1,   265.000,    14.000,     0.000,     0.000,     0.000,     0.000,   1,    1,  0,     0.000,     0.000,   0
   108,'BL',   1,   2,   1,    55.600,   100.000,     0.000,     0.000,     0.000,     0.000,   1,    1,  0,     0.000,     0.000,   0
   109,'BL',   1,   2,   1,   777.600,    32.600,     0.000,     0.000,     0.000,     0.000,   1,    1,  0,     0.000,     0.000,   0
   110,'BL',   1,   2,   1,    40.000,    21.500,     0.000,     0.000,     0.000,     0.000,   1,    1,  0,     0.000,     0.000,   0
   111,'BL',   1,   3,   1,    50.000,    61.500,     0.000,     0.000,     0.000,     0.000,   1,    1,  0,     0.000,     0.000,   0
   112,'BL',   1,   3,   1,   100.000,    10.000,     0.000,     0.000,     0.000,     0.000,   1,    1,  0,     0.000,     0.000,   0
   113,'BL',   1,   3,   1,   148.000,    10.000,     0.000,     0.000,     0.000,     0.000,   1,    1,  0,     0.000,     0.000,   0
   115,'BL',   1,   3,   1,     1.000,   118.500,     0.000,     0.000,     0.000,     0.000,   1,    1,  0,     0.000,     0.000,   0
   116,'BL',   1,   3,   1,   100.000,    10.000,     0.000,     0.000,     0.000,     0.000,   1,    1,  0,     0.000,     0.000,   0
   117,'BL',   1,   3,   1,   884.000,    54.800,     0.000,     0.000,     0.000,     0.000,   1,    1,  0,     0.000,     0.000,   0
   118,'BL',   1,   3,   1,   100.000,    10.000,     0.000,     0.000,     0.000,     0.000,   1,    1,  0,     0.000,     0.000,   0
   119,'BL',   1,   3,   1,  5661.000,  3491.000,     0.000,     0.000,     0.000,     0.000,   1,    1,  0,     0.000,     0.000,   0